<connections>
    <connection from="east_center" to="center_south" fromLane="0" toLane="0"/>
    <connection from="east_center" to="center_north" fromLane="0" toLane="0"/>
    <connection from="south_center" to="center_north" fromLane="0" toLane="0"/>
</connections>
