<edges>
    <edge id="center_south" from="center" to="south" numLanes="1" speed="2"/>
    <edge id="center_north" from="center" to="north" numLanes="1" speed="2"/>
    <edge id="south_center" from="south" to="center" numLanes="1" speed="2"/>
    <edge id="east_center" from="east" to="center" numLanes="1" speed="1"/>
</edges>
