<edges>
    <edge id="start_end" from="start" to="end" numLanes="2" speed="13.89"/>
</edges>
