<?xml version="1.0" encoding="UTF-8"?>

<!-- generated on 2023-05-21 15:09:08 by Eclipse SUMO netconvert Version 1.17.0
<configuration xmlns:xsi="http://www.w3.org/2001/XMLSchema-instance" xsi:noNamespaceSchemaLocation="http://sumo.dlr.de/xsd/netconvertConfiguration.xsd">

    <input>
        <node-files value="/Users/vishaljakhar/Desktop/urban-planning-app/apps/sumo-server/sumo-files/demo/s.nod.xml"/>
        <edge-files value="/Users/vishaljakhar/Desktop/urban-planning-app/apps/sumo-server/sumo-files/demo/s.edg.xml"/>
        <connection-files value="/Users/vishaljakhar/Desktop/urban-planning-app/apps/sumo-server/sumo-files/demo/s.con.xml"/>
    </input>

    <output>
        <output-file value="s.net.xml"/>
    </output>

</configuration>
-->

<net xmlns:xsi="http://www.w3.org/2001/XMLSchema-instance" version="1.16" junctionCornerDetail="5" limitTurnSpeed="5.50"
     xsi:noNamespaceSchemaLocation="http://sumo.dlr.de/xsd/net_file.xsd">

    <location netOffset="0.00,0.00" convBoundary="0.00,0.00,400.00,0.00" origBoundary="0.00,0.00,400.00,0.00"
              projParameter="!"/>

    <edge id="start_end" from="start" to="end" priority="-1">
        <lane id="start_end_0" index="0" speed="13.89" length="400.00" shape="0.00,-4.80 400.00,-4.80"/>
        <lane id="start_end_1" index="1" speed="13.89" length="400.00" shape="0.00,-1.60 400.00,-1.60"/>
    </edge>

    <junction id="end" type="dead_end" x="400.00" y="0.00" incLanes="start_end_0 start_end_1" intLanes=""
              shape="400.00,-6.40 400.00,0.00"/>
    <junction id="start" type="dead_end" x="0.00" y="0.00" incLanes="" intLanes="" shape="0.00,0.00 0.00,-6.40"/>

</net>
