<nodes>
    <node id="start" x="0.0" y="0.0" type="priority"/>
    <node id="end" x="400.0" y="0.0" type="priority"/>
</nodes>
