<routes>
    <vType id="car" accel="0.8" decel="4.5" sigma="0.5" length="5" maxSpeed="20"/>

    <route id="start_to_end" edges="start_end"/>

    <flow id="flow_1" type="car" route="start_to_end" begin="0" end="86400" period="5"/>
</routes>
